this is sparta!
new line.
this Second line.
and this is the end.
